tests/main/res/TestIIDM_distant_regulation.iidm
<?xml version="1.0" encoding="UTF-8"?>
<iidm:network xmlns:iidm="http://www.powsybl.org/schema/iidm/1_2" id="urn:uuid:9eb192d5-4cec-11ea-80e2-00155d739404" caseDate="2020-02-12T09:30:00.000Z" forecastDistance="1013" sourceFormat="CGMES">
    <iidm:property name="CGMESModelDetail" value="bus-branch"/>
    <iidm:substation id="_2b6ed856-027e-11e7-afc1-94659cb4e466" name="ZEZERE" country="PT" geographicalTags="_2b6ed85d-027e-11e7-afc1-94659cb4e466">
        <iidm:voltageLevel id="_2b6ed85e-027e-11e7-afc1-94659cb4e466" name="ZEZ_150" nominalV="150.0" topologyKind="BUS_BREAKER">
            <iidm:busBreakerTopology>
                <iidm:bus id="_2b6ed857-027e-11e7-afc1-94659cb4e466" name="ZEZERE" v="149.956039" angle="4.48307"/>
            </iidm:busBreakerTopology>
        </iidm:voltageLevel>
        <iidm:voltageLevel id="_2b6ed9d3-027e-11e7-afc1-94659cb4e466" name="ZEZ_220" nominalV="220.0" topologyKind="BUS_BREAKER">
            <iidm:busBreakerTopology>
                <iidm:bus id="_2b6ed9d2-027e-11e7-afc1-94659cb4e466" name="ZEZERE" v="220.0" angle="2.75088263"/>
            </iidm:busBreakerTopology>
        </iidm:voltageLevel>
        <iidm:voltageLevel id="_2b6edd40-027e-11e7-afc1-94659cb4e466" name="ZEZ_63" nominalV="63.0" topologyKind="BUS_BREAKER">
            <iidm:busBreakerTopology>
                <iidm:bus id="_2b6edd3f-027e-11e7-afc1-94659cb4e466" name="ZEZERE" v="63.91965" angle="0.895011"/>
            </iidm:busBreakerTopology>
            <iidm:generator id="_3d3ba8e7-8907-11e8-80ec-00155d38aa06" name="601_E1" energySource="WIND" minP="0.0" maxP="70.0" ratedS="70.0" voltageRegulatorOn="false" targetP="1.3" targetQ="-0.0" bus="_2b6edd3f-027e-11e7-afc1-94659cb4e466" connectableBus="_2b6edd3f-027e-11e7-afc1-94659cb4e466" p="-1.3" q="0.0">
                <iidm:minMaxReactiveLimits minQ="0.0" maxQ="0.0"/>
            </iidm:generator>
            <iidm:generator id="_3d3ba8ed-8907-11e8-80ec-00155d38aa06" name="601_E2" energySource="WIND" minP="0.0" maxP="45.0" ratedS="45.0" voltageRegulatorOn="false" targetP="0.2" targetQ="-0.0" bus="_2b6edd3f-027e-11e7-afc1-94659cb4e466" connectableBus="_2b6edd3f-027e-11e7-afc1-94659cb4e466" p="-0.2" q="0.0">
                <iidm:minMaxReactiveLimits minQ="0.0" maxQ="0.0"/>
            </iidm:generator>
            <iidm:generator id="_3d3ba8f3-8907-11e8-80ec-00155d38aa06" name="601_H " energySource="HYDRO" minP="0.0" maxP="20.576" ratedS="21.0" voltageRegulatorOn="false" targetP="7.4" targetQ="-0.0" bus="_2b6edd3f-027e-11e7-afc1-94659cb4e466" connectableBus="_2b6edd3f-027e-11e7-afc1-94659cb4e466" p="-7.4" q="0.0">
                <iidm:minMaxReactiveLimits minQ="0.0" maxQ="0.0"/>
            </iidm:generator>
            <iidm:generator id="_3d3ba8f9-8907-11e8-80ec-00155d38aa06" name="601_T " energySource="OTHER" minP="0.0" maxP="119.658" ratedS="120.0" voltageRegulatorOn="false" targetP="40.8" targetQ="-0.0" bus="_2b6edd3f-027e-11e7-afc1-94659cb4e466" connectableBus="_2b6edd3f-027e-11e7-afc1-94659cb4e466" p="-40.8" q="0.0">
                <iidm:minMaxReactiveLimits minQ="0.0" maxQ="0.0"/>
            </iidm:generator>
            <iidm:generator id="_3d3ba8ff-8907-11e8-80ec-00155d38aa06" name="601_V1" energySource="OTHER" minP="0.0" maxP="33.6" ratedS="34.0" voltageRegulatorOn="false" targetP="0.7" targetQ="-0.0" bus="_2b6edd3f-027e-11e7-afc1-94659cb4e466" connectableBus="_2b6edd3f-027e-11e7-afc1-94659cb4e466" p="-0.7" q="0.0">
                <iidm:minMaxReactiveLimits minQ="0.0" maxQ="0.0"/>
            </iidm:generator>
            <iidm:load id="_2b6ef08c-027e-11e7-afc1-94659cb4e466" name="601_1 " loadType="UNDEFINED" p0="189.352" q0="14.524" bus="_2b6edd3f-027e-11e7-afc1-94659cb4e466" connectableBus="_2b6edd3f-027e-11e7-afc1-94659cb4e466" p="189.352" q="14.524"></iidm:load>
        </iidm:voltageLevel>
        <iidm:twoWindingsTransformer id="_2be152f2-027e-11e7-afc1-94659cb4e466" name="AT 0 220/150 SZR" r="0.252" x="10.744214876033055" g="3.4000462222222223E-6" b="-2.3933262222222224E-5" ratedU1="220.0" ratedU2="150.0" connectableBus1="_2b6ed9d2-027e-11e7-afc1-94659cb4e466" voltageLevelId1="_2b6ed9d3-027e-11e7-afc1-94659cb4e466" connectableBus2="_2b6ed857-027e-11e7-afc1-94659cb4e466" voltageLevelId2="_2b6ed85e-027e-11e7-afc1-94659cb4e466" p1="0.0" q1="0.0" p2="0.0" q2="0.0">
            <iidm:ratioTapChanger lowTapPosition="1" tapPosition="9" targetDeadband="15.0" loadTapChangingCapabilities="true" regulating="true" targetV="150.0">
                <iidm:terminalRef id="_2be15315-027e-11e7-afc1-94659cb4e466" side="ONE"/>
                <iidm:step r="-19.735602278399988" x="-19.735602278399988" g="24.58823941699986" b="24.58823941699986" rho="0.895904"/>
                <iidm:step r="-17.387170494399996" x="-17.387170494399996" g="21.046574240894845" b="21.046574240894845" rho="0.9089160000000001"/>
                <iidm:step r="-15.00487628160001" x="-15.00487628160001" g="17.653808389423766" b="17.653808389423766" rho="0.921928"/>
                <iidm:step r="-12.58871964" x="-12.58871964" g="14.401710612353291" b="14.401710612353291" rho="0.93494"/>
                <iidm:step r="-10.138700569600001" x="-10.138700569600001" g="11.282610683203732" b="11.282610683203732" rho="0.947952"/>
                <iidm:step r="-7.654819070399988" x="-7.654819070399988" g="8.289354131252068" b="8.289354131252068" rho="0.9609639999999999"/>
                <iidm:step r="-5.137075142400005" x="-5.137075142400005" g="5.4152611782857685" b="5.4152611782857685" rho="0.973976"/>
                <iidm:step r="-2.585468785600009" x="-2.585468785600009" g="2.654089439602858" b="2.654089439602858" rho="0.9869879999999999"/>
                <iidm:step r="0.0" x="0.0" g="0.0" b="0.0" rho="1.0"/>
                <iidm:step r="2.6193312144000114" x="2.6193312144000114" g="-2.552473479804218" b="-2.552473479804218" rho="1.013012"/>
                <iidm:step r="5.272524857600014" x="5.272524857600014" g="-5.008452931790175" b="-5.008452931790175" rho="1.026024"/>
                <iidm:step r="7.9595809296000075" x="7.9595809296000075" g="-7.372741595570309" b="-7.372741595570309" rho="1.039036"/>
                <iidm:step r="10.680499430400015" x="10.680499430400015" g="-9.649847520896227" b="-9.649847520896227" rho="1.052048"/>
                <iidm:step r="13.435280359999968" x="13.435280359999968" g="-11.844005072638385" b="-11.844005072638385" rho="1.06506"/>
                <iidm:step r="16.22392371839998" x="16.22392371839998" g="-13.959194629936157" b="-13.959194629936157" rho="1.078072"/>
                <iidm:step r="19.04642950559998" x="19.04642950559998" g="-15.999160650764443" b="-15.999160650764443" rho="1.091084"/>
                <iidm:step r="21.9027977216" x="21.9027977216" g="-17.96742825510972" b="-17.96742825510972" rho="1.104096"/>
                <iidm:step r="24.793028366400005" x="24.793028366400005" g="-19.867318463981942" b="-19.867318463981942" rho="1.117108"/>
                <iidm:step r="27.717121440000003" x="27.717121440000003" g="-21.701962217353277" b="-21.701962217353277" rho="1.13012"/>
                <iidm:step r="30.675076942400015" x="30.675076942400015" g="-23.47431328157642" b="-23.47431328157642" rho="1.143132"/>
                <iidm:step r="33.666894873600015" x="33.666894873600015" g="-25.187160145701437" b="-25.187160145701437" rho="1.156144"/>
                <iidm:step r="36.69257523360001" x="36.69257523360001" g="-26.84313699620805" b="-26.84313699620805" rho="1.169156"/>
                <iidm:step r="39.752118022399976" x="39.752118022399976" g="-28.44473385085181" b="-28.44473385085181" rho="1.1821679999999999"/>
                <iidm:step r="42.84552323999997" x="42.84552323999997" g="-29.99430592445914" b="-29.99430592445914" rho="1.19518"/>
            </iidm:ratioTapChanger>
            <iidm:currentLimits1 permanentLimit="393.647911">
                <iidm:temporaryLimit name="_ed0ea055-4826-11ea-80e2-00155d739404" acceptableDuration="7200" value="393.647911"/>
                <iidm:temporaryLimit name="_ed0ea056-4826-11ea-80e2-00155d739404" acceptableDuration="900" value="393.647911"/>
            </iidm:currentLimits1>
            <iidm:currentLimits2 permanentLimit="577.350269">
                <iidm:temporaryLimit name="_ed0ea051-4826-11ea-80e2-00155d739404" acceptableDuration="7200" value="577.350269"/>
                <iidm:temporaryLimit name="_ed0ea052-4826-11ea-80e2-00155d739404" acceptableDuration="900" value="577.350269"/>
            </iidm:currentLimits2>
        </iidm:twoWindingsTransformer>
        <iidm:twoWindingsTransformer id="_2be15315-027e-11e7-afc1-94659cb4e466" name="TR 3 150/60 SZR" r="0.06509108326728927" x="3.849190385828467" g="1.7153218412653062E-5" b="-9.081182403628117E-6" ratedU1="150.09" ratedU2="63.0" bus1="_2b6ed857-027e-11e7-afc1-94659cb4e466" connectableBus1="_2b6ed857-027e-11e7-afc1-94659cb4e466" voltageLevelId1="_2b6ed85e-027e-11e7-afc1-94659cb4e466" bus2="_2b6edd3f-027e-11e7-afc1-94659cb4e466" connectableBus2="_2b6edd3f-027e-11e7-afc1-94659cb4e466" voltageLevelId2="_2b6edd40-027e-11e7-afc1-94659cb4e466" p1="66.97027" q1="6.78100967" p2="-66.83105" q2="-2.53118587">
            <iidm:ratioTapChanger lowTapPosition="1" tapPosition="11" targetDeadband="2.52" loadTapChangingCapabilities="true" regulating="true" targetV="63.0">
                <iidm:terminalRef id="_3d3ba8f9-8907-11e8-80ec-00155d38aa06"/>
                <iidm:step r="0.0" x="0.0" g="0.0" b="0.0" rho="1.1408440420560748"/>
                <iidm:step r="0.0" x="0.0" g="0.0" b="0.0" rho="1.1276092878921824"/>
                <iidm:step r="0.0" x="0.0" g="0.0" b="0.0" rho="1.1146780809702157"/>
                <iidm:step r="0.0" x="0.0" g="0.0" b="0.0" rho="1.1020400966268757"/>
                <iidm:step r="0.0" x="0.0" g="0.0" b="0.0" rho="1.0896854731850198"/>
                <iidm:step r="0.0" x="0.0" g="0.0" b="0.0" rho="1.0776047862894187"/>
                <iidm:step r="0.0" x="0.0" g="0.0" b="0.0" rho="1.065789024930937"/>
                <iidm:step r="0.0" x="0.0" g="0.0" b="0.0" rho="1.0542295690309522"/>
                <iidm:step r="0.0" x="0.0" g="0.0" b="0.0" rho="1.0429181684688291"/>
                <iidm:step r="0.0" x="0.0" g="0.0" b="0.0" rho="1.031846923445213"/>
                <iidm:step r="0.0" x="0.0" g="0.0" b="0.0" rho="1.0210082660829223"/>
                <iidm:step r="0.0" x="0.0" g="0.0" b="0.0" rho="1.0103949431753882"/>
                <iidm:step r="0.0" x="0.0" g="0.0" b="0.0" rho="1.0"/>
                <iidm:step r="0.0" x="0.0" g="0.0" b="0.0" rho="0.9898167651204408"/>
                <iidm:step r="0.0" x="0.0" g="0.0" b="0.0" rho="0.979838836108237"/>
                <iidm:step r="0.0" x="0.0" g="0.0" b="0.0" rho="0.9700600661192941"/>
                <iidm:step r="0.0" x="0.0" g="0.0" b="0.0" rho="0.9604745512662896"/>
                <iidm:step r="0.0" x="0.0" g="0.0" b="0.0" rho="0.9510766187324051"/>
                <iidm:step r="0.0" x="0.0" g="0.0" b="0.0" rho="0.9418608155761174"/>
                <iidm:step r="0.0" x="0.0" g="0.0" b="0.0" rho="0.9328218981806241"/>
                <iidm:step r="0.0" x="0.0" g="0.0" b="0.0" rho="0.9239548223050086"/>
                <iidm:step r="0.0" x="0.0" g="0.0" b="0.0" rho="0.9152547336974827"/>
                <iidm:step r="0.0" x="0.0" g="0.0" b="0.0" rho="0.9067169592340054"/>
                <iidm:step r="0.0" x="0.0" g="0.0" b="0.0" rho="0.8983369985482874"/>
                <iidm:step r="0.0" x="0.0" g="0.0" b="0.0" rho="0.8901105161216817"/>
            </iidm:ratioTapChanger>
            <iidm:currentLimits1 permanentLimit="653.937942">
                <iidm:temporaryLimit name="_ed0ea061-4826-11ea-80e2-00155d739404" acceptableDuration="7200" value="686.634839"/>
                <iidm:temporaryLimit name="_ed0ea062-4826-11ea-80e2-00155d739404" acceptableDuration="900" value="719.331737"/>
            </iidm:currentLimits1>
            <iidm:currentLimits2 permanentLimit="1557.929298">
                <iidm:temporaryLimit name="_ed0ea065-4826-11ea-80e2-00155d739404" acceptableDuration="7200" value="1635.825763"/>
                <iidm:temporaryLimit name="_ed0ea066-4826-11ea-80e2-00155d739404" acceptableDuration="900" value="1713.722228"/>
            </iidm:currentLimits2>
        </iidm:twoWindingsTransformer>
        <iidm:twoWindingsTransformer id="_2be15304-027e-11e7-afc1-94659cb4e466" name="AT 1 220/150 SZR" r="0.1512009297520661" x="8.995351239669422" g="1.6133333333333335E-6" b="-3.4443591111111117E-6" ratedU1="220.0" ratedU2="150.0" bus1="_2b6ed9d2-027e-11e7-afc1-94659cb4e466" connectableBus1="_2b6ed9d2-027e-11e7-afc1-94659cb4e466" voltageLevelId1="_2b6ed9d3-027e-11e7-afc1-94659cb4e466" bus2="_2b6ed857-027e-11e7-afc1-94659cb4e466" connectableBus2="_2b6ed857-027e-11e7-afc1-94659cb4e466" voltageLevelId2="_2b6ed85e-027e-11e7-afc1-94659cb4e466" p1="-73.2282257" q1="52.1147079" p2="73.3187943" q2="-48.8074646">
            <iidm:ratioTapChanger lowTapPosition="1" tapPosition="13" targetDeadband="15.0" loadTapChangingCapabilities="true" regulating="true" targetV="150.0">
                <iidm:terminalRef id="_2be15315-027e-11e7-afc1-94659cb4e466" side="ONE"/>
                <iidm:step r="-18.999999999999993" x="-18.999999999999993" g="23.456790123456784" b="23.456790123456784" rho="0.8999999999999999"/>
                <iidm:step r="-17.189999999999994" x="-17.189999999999994" g="20.758362516604258" b="20.758362516604258" rho="0.9100000000000001"/>
                <iidm:step r="-15.359999999999996" x="-15.359999999999996" g="18.14744801512287" b="18.14744801512287" rho="0.92"/>
                <iidm:step r="-13.51000000000001" x="-13.51000000000001" g="15.620302925193673" b="15.620302925193673" rho="0.9299999999999998"/>
                <iidm:step r="-11.640000000000006" x="-11.640000000000006" g="13.173381620642832" b="13.173381620642832" rho="0.9400000000000001"/>
                <iidm:step r="-9.750000000000004" x="-9.750000000000004" g="10.803324099723" b="10.803324099723" rho="0.9500000000000001"/>
                <iidm:step r="-7.8400000000000025" x="-7.8400000000000025" g="8.506944444444443" b="8.506944444444443" rho="0.96"/>
                <iidm:step r="-5.910000000000004" x="-5.910000000000004" g="6.28122010840686" b="6.28122010840686" rho="0.9699999999999999"/>
                <iidm:step r="-3.960000000000008" x="-3.960000000000008" g="4.1232819658475695" b="4.1232819658475695" rho="0.98"/>
                <iidm:step r="-1.9900000000000029" x="-1.9900000000000029" g="2.030405060708085" b="2.030405060708085" rho="0.99"/>
                <iidm:step r="0.0" x="0.0" g="0.0" b="0.0" rho="1.0"/>
                <iidm:step r="2.0100000000000007" x="2.0100000000000007" g="-1.9703950593079167" b="-1.9703950593079167" rho="1.01"/>
                <iidm:step r="4.039999999999999" x="4.039999999999999" g="-3.8831218762014563" b="-3.8831218762014563" rho="1.02"/>
                <iidm:step r="6.089999999999995" x="6.089999999999995" g="-5.740409086624565" b="-5.740409086624565" rho="1.03"/>
                <iidm:step r="8.16000000000001" x="8.16000000000001" g="-7.544378698224863" b="-7.544378698224863" rho="1.04"/>
                <iidm:step r="10.250000000000004" x="10.250000000000004" g="-9.297052154195018" b="-9.297052154195018" rho="1.05"/>
                <iidm:step r="12.360000000000015" x="12.360000000000015" g="-11.000355998576017" b="-11.000355998576017" rho="1.06"/>
                <iidm:step r="14.490000000000002" x="14.490000000000002" g="-12.656127172678843" b="-12.656127172678843" rho="1.07"/>
                <iidm:step r="16.64000000000001" x="16.64000000000001" g="-14.266117969821678" b="-14.266117969821678" rho="1.08"/>
                <iidm:step r="18.810000000000016" x="18.810000000000016" g="-15.832000673344005" b="-15.832000673344005" rho="1.09"/>
                <iidm:step r="21.000000000000018" x="21.000000000000018" g="-17.355371900826455" b="-17.355371900826455" rho="1.1"/>
            </iidm:ratioTapChanger>
            <iidm:currentLimits1 permanentLimit="656.079851">
                <iidm:temporaryLimit name="_ed0ea05d-4826-11ea-80e2-00155d739404" acceptableDuration="7200" value="688.883844"/>
                <iidm:temporaryLimit name="_ed0ea05e-4826-11ea-80e2-00155d739404" acceptableDuration="900" value="721.687836"/>
            </iidm:currentLimits1>
            <iidm:currentLimits2 permanentLimit="962.250449">
                <iidm:temporaryLimit name="_ed0ea059-4826-11ea-80e2-00155d739404" acceptableDuration="7200" value="1010.362971"/>
                <iidm:temporaryLimit name="_ed0ea05a-4826-11ea-80e2-00155d739404" acceptableDuration="900" value="1058.475494"/>
            </iidm:currentLimits2>
        </iidm:twoWindingsTransformer>
        <iidm:twoWindingsTransformer id="_2be158a5-027e-11e7-afc1-94659cb4e466" name="TR 2 220/60 SZR" r="0.07025130000000002" x="3.675671219008265" g="1.7888122952884855E-5" b="-5.543013353489543E-6" ratedU1="220.0" ratedU2="63.0" bus1="_2b6ed9d2-027e-11e7-afc1-94659cb4e466" connectableBus1="_2b6ed9d2-027e-11e7-afc1-94659cb4e466" voltageLevelId1="_2b6ed9d3-027e-11e7-afc1-94659cb4e466" bus2="_2b6edd3f-027e-11e7-afc1-94659cb4e466" connectableBus2="_2b6edd3f-027e-11e7-afc1-94659cb4e466" voltageLevelId2="_2b6edd40-027e-11e7-afc1-94659cb4e466" p1="36.4413071" q1="7.208015" p2="-36.3469772" q2="-5.96557665">
            <iidm:ratioTapChanger lowTapPosition="1" tapPosition="11" targetDeadband="2.52" loadTapChangingCapabilities="true" regulating="true" targetV="63.0">
                <iidm:terminalRef id="_3d3ba8f9-8907-11e8-80ec-00155d38aa06"/>
                <iidm:step r="0.0" x="0.0" g="0.0" b="0.0" rho="1.1423766918598806"/>
                <iidm:step r="0.0" x="0.0" g="0.0" b="0.0" rho="1.1289816359847091"/>
                <iidm:step r="0.0" x="0.0" g="0.0" b="0.0" rho="1.1158970696542951"/>
                <iidm:step r="0.0" x="0.0" g="0.0" b="0.0" rho="1.1031123211027594"/>
                <iidm:step r="0.0" x="0.0" g="0.0" b="0.0" rho="1.090617202087005"/>
                <iidm:step r="0.0" x="0.0" g="0.0" b="0.0" rho="1.0784019808087584"/>
                <iidm:step r="0.0" x="0.0" g="0.0" b="0.0" rho="1.0664573566361375"/>
                <iidm:step r="0.0" x="0.0" g="0.0" b="0.0" rho="1.0547744364867573"/>
                <iidm:step r="0.0" x="0.0" g="0.0" b="0.0" rho="1.0433447127463338"/>
                <iidm:step r="0.0" x="0.0" g="0.0" b="0.0" rho="1.0321600426075666"/>
                <iidm:step r="0.0" x="0.0" g="0.0" b="0.0" rho="1.0212126287238519"/>
                <iidm:step r="0.0" x="0.0" g="0.0" b="0.0" rho="1.0104950010812297"/>
                <iidm:step r="0.0" x="0.0" g="0.0" b="0.0" rho="1.0"/>
                <iidm:step r="0.0" x="0.0" g="0.0" b="0.0" rho="0.9897207601847214"/>
                <iidm:step r="0.0" x="0.0" g="0.0" b="0.0" rho="0.9796506957479241"/>
                <iidm:step r="0.0" x="0.0" g="0.0" b="0.0" rho="0.9697834861388847"/>
                <iidm:step r="0.0" x="0.0" g="0.0" b="0.0" rho="0.9601130629142888"/>
                <iidm:step r="0.0" x="0.0" g="0.0" b="0.0" rho="0.9506335972925954"/>
                <iidm:step r="0.0" x="0.0" g="0.0" b="0.0" rho="0.9413394884384684"/>
                <iidm:step r="0.0" x="0.0" g="0.0" b="0.0" rho="0.9322253524277945"/>
                <iidm:step r="0.0" x="0.0" g="0.0" b="0.0" rho="0.9232860118476061"/>
                <iidm:step r="0.0" x="0.0" g="0.0" b="0.0" rho="0.9145164859886928"/>
                <iidm:step r="0.0" x="0.0" g="0.0" b="0.0" rho="0.9059119815918685"/>
                <iidm:step r="0.0" x="0.0" g="0.0" b="0.0" rho="0.897467884111767"/>
                <iidm:step r="0.0" x="0.0" g="0.0" b="0.0" rho="0.8891797494647137"/>
            </iidm:ratioTapChanger>
            <iidm:currentLimits1 permanentLimit="446.134299">
                <iidm:temporaryLimit name="_4ec91acc-4827-11ea-80e2-00155d739404" acceptableDuration="7200" value="468.441014"/>
                <iidm:temporaryLimit name="_4ec91acd-4827-11ea-80e2-00155d739404" acceptableDuration="900" value="490.747729"/>
            </iidm:currentLimits1>
            <iidm:currentLimits2 permanentLimit="1557.929298">
                <iidm:temporaryLimit name="_4ec91ad0-4827-11ea-80e2-00155d739404" acceptableDuration="7200" value="1635.825763"/>
                <iidm:temporaryLimit name="_4ec91ad1-4827-11ea-80e2-00155d739404" acceptableDuration="900" value="1713.722228"/>
            </iidm:currentLimits2>
        </iidm:twoWindingsTransformer>
        <iidm:twoWindingsTransformer id="_2be158b6-027e-11e7-afc1-94659cb4e466" name="TR 4 220/60 SZR" r="0.06072570000000001" x="3.733238119834711" g="1.763691609977324E-5" b="-1.0833966238347189E-5" ratedU1="220.0" ratedU2="63.0" bus1="_2b6ed9d2-027e-11e7-afc1-94659cb4e466" connectableBus1="_2b6ed9d2-027e-11e7-afc1-94659cb4e466" voltageLevelId1="_2b6ed9d3-027e-11e7-afc1-94659cb4e466" bus2="_2b6edd3f-027e-11e7-afc1-94659cb4e466" connectableBus2="_2b6edd3f-027e-11e7-afc1-94659cb4e466" voltageLevelId2="_2b6edd40-027e-11e7-afc1-94659cb4e466" p1="35.86352" q1="7.272999" p2="-35.77396" q2="-6.027374">
            <iidm:ratioTapChanger lowTapPosition="1" tapPosition="13" targetDeadband="2.52" loadTapChangingCapabilities="true" regulating="true" targetV="63.0">
                <iidm:terminalRef id="_3d3ba8f9-8907-11e8-80ec-00155d38aa06"/>
                <iidm:step r="0.0" x="0.0" g="0.0" b="0.0" rho="1.170584613367608"/>
                <iidm:step r="0.0" x="0.0" g="0.0" b="0.0" rho="1.1564931888333645"/>
                <iidm:step r="0.0" x="0.0" g="0.0" b="0.0" rho="1.1427369922248176"/>
                <iidm:step r="0.0" x="0.0" g="0.0" b="0.0" rho="1.1293042018021437"/>
                <iidm:step r="0.0" x="0.0" g="0.0" b="0.0" rho="1.1161835452221764"/>
                <iidm:step r="0.0" x="0.0" g="0.0" b="0.0" rho="1.1033642679895268"/>
                <iidm:step r="0.0" x="0.0" g="0.0" b="0.0" rho="1.0908361040570376"/>
                <iidm:step r="0.0" x="0.0" g="0.0" b="0.0" rho="1.0785892484066542"/>
                <iidm:step r="0.0" x="0.0" g="0.0" b="0.0" rho="1.0666143314568033"/>
                <iidm:step r="0.0" x="0.0" g="0.0" b="0.0" rho="1.0549023951558882"/>
                <iidm:step r="0.0" x="0.0" g="0.0" b="0.0" rho="1.043444870633705"/>
                <iidm:step r="0.0" x="0.0" g="0.0" b="0.0" rho="1.0322335572936074"/>
                <iidm:step r="0.0" x="0.0" g="0.0" b="0.0" rho="1.0212606032382132"/>
                <iidm:step r="0.0" x="0.0" g="0.0" b="0.0" rho="1.010518486930459"/>
                <iidm:step r="0.0" x="0.0" g="0.0" b="0.0" rho="1.0"/>
                <iidm:step r="0.0" x="0.0" g="0.0" b="0.0" rho="0.9896982311123517"/>
                <iidm:step r="0.0" x="0.0" g="0.0" b="0.0" rho="0.9796065508249266"/>
                <iidm:step r="0.0" x="0.0" g="0.0" b="0.0" rho="0.9697185973602321"/>
                <iidm:step r="0.0" x="0.0" g="0.0" b="0.0" rho="0.9600282632320696"/>
                <iidm:step r="0.0" x="0.0" g="0.0" b="0.0" rho="0.9505296826656655"/>
                <iidm:step r="0.0" x="0.0" g="0.0" b="0.0" rho="0.9412172197572789"/>
                <iidm:step r="0.0" x="0.0" g="0.0" b="0.0" rho="0.9320854573230692"/>
                <iidm:step r="0.0" x="0.0" g="0.0" b="0.0" rho="0.9231291863908603"/>
                <iidm:step r="0.0" x="0.0" g="0.0" b="0.0" rho="0.9143433962919719"/>
                <iidm:step r="0.0" x="0.0" g="0.0" b="0.0" rho="0.9057232653135161"/>
            </iidm:ratioTapChanger>
            <iidm:currentLimits1 permanentLimit="446.134299">
                <iidm:temporaryLimit name="_4ec91ad4-4827-11ea-80e2-00155d739404" acceptableDuration="7200" value="468.441014"/>
                <iidm:temporaryLimit name="_4ec91ad5-4827-11ea-80e2-00155d739404" acceptableDuration="900" value="490.747729"/>
            </iidm:currentLimits1>
            <iidm:currentLimits2 permanentLimit="1557.929298">
                <iidm:temporaryLimit name="_4ec91ad8-4827-11ea-80e2-00155d739404" acceptableDuration="7200" value="1635.825763"/>
                <iidm:temporaryLimit name="_4ec91ad9-4827-11ea-80e2-00155d739404" acceptableDuration="900" value="1713.722228"/>
            </iidm:currentLimits2>
        </iidm:twoWindingsTransformer>
    </iidm:substation>
    <iidm:substation id="_2b6ed995-027e-11e7-afc1-94659cb4e466" name="C.BRANCO" country="PT" geographicalTags="_2b6ed85d-027e-11e7-afc1-94659cb4e466">
        <iidm:voltageLevel id="_2b6ed997-027e-11e7-afc1-94659cb4e466" name="C.B_150" nominalV="150.0" topologyKind="BUS_BREAKER">
            <iidm:busBreakerTopology>
                <iidm:bus id="_2b6ed996-027e-11e7-afc1-94659cb4e466" name="C.BRANCO" v="149.741379" angle="3.30880928"/>
            </iidm:busBreakerTopology>
        </iidm:voltageLevel>
        <iidm:voltageLevel id="_2b6edb8f-027e-11e7-afc1-94659cb4e466" name="C.B_220" nominalV="220.0" topologyKind="BUS_BREAKER">
            <iidm:busBreakerTopology>
                <iidm:bus id="_2b6edb8e-027e-11e7-afc1-94659cb4e466" name="C.BRANCO" v="219.685608" angle="3.68916917"/>
            </iidm:busBreakerTopology>
            <iidm:shunt id="_3d3bb93e-8907-11e8-80ec-00155d38aa06" name="C.BRANCO_1" bPerSection="-0.0014463" maximumSectionCount="1" currentSectionCount="0" voltageRegulatorOn="true" targetV="220.0" targetDeadband="22.0" bus="_2b6edb8e-027e-11e7-afc1-94659cb4e466" connectableBus="_2b6edb8e-027e-11e7-afc1-94659cb4e466" q="0.0">
                <iidm:regulatingTerminal id="_63b04e82-db70-11e8-80ee-00155d38aa06" side="ONE"/>
            </iidm:shunt>
        </iidm:voltageLevel>
        <iidm:voltageLevel id="_2b6edfbe-027e-11e7-afc1-94659cb4e466" name="C.B_63" nominalV="63.0" topologyKind="BUS_BREAKER">
            <iidm:busBreakerTopology>
                <iidm:bus id="_2b6edfbd-027e-11e7-afc1-94659cb4e466" name="C.BRANCO" v="63.3716927" angle="2.24748588"/>
            </iidm:busBreakerTopology>
            <iidm:generator id="_3d3bacba-8907-11e8-80ec-00155d38aa06" name="681_E1" energySource="WIND" minP="0.0" maxP="60.0" ratedS="60.0" voltageRegulatorOn="false" targetP="0.7" targetQ="-0.0" bus="_2b6edfbd-027e-11e7-afc1-94659cb4e466" connectableBus="_2b6edfbd-027e-11e7-afc1-94659cb4e466" p="-0.7" q="0.0">
                <iidm:minMaxReactiveLimits minQ="0.0" maxQ="0.0"/>
            </iidm:generator>
            <iidm:generator id="_3d3bacc0-8907-11e8-80ec-00155d38aa06" name="681_E2" energySource="WIND" minP="0.0" maxP="80.0" ratedS="80.0" voltageRegulatorOn="false" targetP="0.4" targetQ="-0.0" bus="_2b6edfbd-027e-11e7-afc1-94659cb4e466" connectableBus="_2b6edfbd-027e-11e7-afc1-94659cb4e466" p="-0.4" q="0.0">
                <iidm:minMaxReactiveLimits minQ="0.0" maxQ="0.0"/>
            </iidm:generator>
            <iidm:generator id="_3d3bacc6-8907-11e8-80ec-00155d38aa06" name="681_H " energySource="HYDRO" minP="0.0" maxP="22.5" ratedS="23.0" voltageRegulatorOn="false" targetP="1.6" targetQ="-0.0" bus="_2b6edfbd-027e-11e7-afc1-94659cb4e466" connectableBus="_2b6edfbd-027e-11e7-afc1-94659cb4e466" p="-1.6" q="0.0">
                <iidm:minMaxReactiveLimits minQ="0.0" maxQ="0.0"/>
            </iidm:generator>
            <iidm:load id="_2b6ef1be-027e-11e7-afc1-94659cb4e466" name="681_1 " loadType="UNDEFINED" p0="33.696" q0="1.126" bus="_2b6edfbd-027e-11e7-afc1-94659cb4e466" connectableBus="_2b6edfbd-027e-11e7-afc1-94659cb4e466" p="33.696" q="1.126"></iidm:load>
        </iidm:voltageLevel>
        <iidm:twoWindingsTransformer id="_2be1579f-027e-11e7-afc1-94659cb4e466" name="TR 4 150/60 SCC" r="0.19924451794937587" x="6.422241978561641" g="1.1925666886371882E-5" b="-4.135875398134542E-5" ratedU1="150.53" ratedU2="63.0" bus1="_2b6ed996-027e-11e7-afc1-94659cb4e466" connectableBus1="_2b6ed996-027e-11e7-afc1-94659cb4e466" voltageLevelId1="_2b6ed997-027e-11e7-afc1-94659cb4e466" bus2="_2b6edfbd-027e-11e7-afc1-94659cb4e466" connectableBus2="_2b6edfbd-027e-11e7-afc1-94659cb4e466" voltageLevelId2="_2b6edfbe-027e-11e7-afc1-94659cb4e466" p1="11.5860386" q1="-0.8059405" p2="-11.5325336" q2="1.1832912">
            <iidm:ratioTapChanger lowTapPosition="1" tapPosition="18" targetDeadband="2.52" loadTapChangingCapabilities="true" regulating="true" targetV="63.0">
                <iidm:terminalRef id="_2be1579f-027e-11e7-afc1-94659cb4e466" side="TWO"/>
                <iidm:step r="0.0" x="0.0" g="0.0" b="0.0" rho="1.2178120107440247"/>
                <iidm:step r="0.0" x="0.0" g="0.0" b="0.0" rho="1.2032518603477014"/>
                <iidm:step r="0.0" x="0.0" g="0.0" b="0.0" rho="1.1890357585857894"/>
                <iidm:step r="0.0" x="0.0" g="0.0" b="0.0" rho="1.175151653320861"/>
                <iidm:step r="0.0" x="0.0" g="0.0" b="0.0" rho="1.1615880488387373"/>
                <iidm:step r="0.0" x="0.0" g="0.0" b="0.0" rho="1.1483339741036909"/>
                <iidm:step r="0.0" x="0.0" g="0.0" b="0.0" rho="1.1353789531624392"/>
                <iidm:step r="0.0" x="0.0" g="0.0" b="0.0" rho="1.1227129775291242"/>
                <iidm:step r="0.0" x="0.0" g="0.0" b="0.0" rho="1.1103264803982964"/>
                <iidm:step r="0.0" x="0.0" g="0.0" b="0.0" rho="1.0982103125462621"/>
                <iidm:step r="0.0" x="0.0" g="0.0" b="0.0" rho="1.0863557197932274"/>
                <iidm:step r="0.0" x="0.0" g="0.0" b="0.0" rho="1.0747543219095548"/>
                <iidm:step r="0.0" x="0.0" g="0.0" b="0.0" rho="1.0633980928593243"/>
                <iidm:step r="0.0" x="0.0" g="0.0" b="0.0" rho="1.0522793422833199"/>
                <iidm:step r="0.0" x="0.0" g="0.0" b="0.0" rho="1.0413906981316619"/>
                <iidm:step r="0.0" x="0.0" g="0.0" b="0.0" rho="1.0307250903636687"/>
                <iidm:step r="0.0" x="0.0" g="0.0" b="0.0" rho="1.020275735639211"/>
                <iidm:step r="0.0" x="0.0" g="0.0" b="0.0" rho="1.0100361229319006"/>
                <iidm:step r="0.0" x="0.0" g="0.0" b="0.0" rho="1.0"/>
                <iidm:step r="0.0" x="0.0" g="0.0" b="0.0" rho="0.9901613606559779"/>
                <iidm:step r="0.0" x="0.0" g="0.0" b="0.0" rho="0.9805144327802449"/>
                <iidm:step r="0.0" x="0.0" g="0.0" b="0.0" rho="0.9710536670288049"/>
                <iidm:step r="0.0" x="0.0" g="0.0" b="0.0" rho="0.9617737261884061"/>
                <iidm:step r="0.0" x="0.0" g="0.0" b="0.0" rho="0.9526694751362794"/>
                <iidm:step r="0.0" x="0.0" g="0.0" b="0.0" rho="0.9437359713647857"/>
                <iidm:step r="0.0" x="0.0" g="0.0" b="0.0" rho="0.9349684560342304"/>
                <iidm:step r="0.0" x="0.0" g="0.0" b="0.0" rho="0.9263623455198152"/>
            </iidm:ratioTapChanger>
            <iidm:currentLimits1 permanentLimit="241.633342">
                <iidm:temporaryLimit name="_3c703609-4827-11ea-80e2-00155d739404" acceptableDuration="7200" value="289.96001"/>
                <iidm:temporaryLimit name="_3c70360a-4827-11ea-80e2-00155d739404" acceptableDuration="900" value="314.123344"/>
            </iidm:currentLimits1>
            <iidm:currentLimits2 permanentLimit="577.350269">
                <iidm:temporaryLimit name="_3c70360d-4827-11ea-80e2-00155d739404" acceptableDuration="7200" value="692.820323"/>
                <iidm:temporaryLimit name="_3c70360e-4827-11ea-80e2-00155d739404" acceptableDuration="900" value="750.55535"/>
            </iidm:currentLimits2>
        </iidm:twoWindingsTransformer>
        <iidm:twoWindingsTransformer id="_2be1577c-027e-11e7-afc1-94659cb4e466" name="AT 1 220/150 SCC" r="0.11249999999999999" x="9.090185950413222" g="1.9999955555555558E-6" b="-5.666672E-6" ratedU1="220.0" ratedU2="150.0" bus1="_2b6edb8e-027e-11e7-afc1-94659cb4e466" connectableBus1="_2b6edb8e-027e-11e7-afc1-94659cb4e466" voltageLevelId1="_2b6edb8f-027e-11e7-afc1-94659cb4e466" bus2="_2b6ed996-027e-11e7-afc1-94659cb4e466" connectableBus2="_2b6ed996-027e-11e7-afc1-94659cb4e466" voltageLevelId2="_2b6ed997-027e-11e7-afc1-94659cb4e466" p1="16.4318676" q1="0.7082295" p2="-16.3856468" q2="-0.4721561">
            <iidm:ratioTapChanger lowTapPosition="1" tapPosition="11" targetDeadband="22.0" loadTapChangingCapabilities="true" regulating="true" targetV="220.0">
                <iidm:terminalRef id="_63b04e82-db70-11e8-80ee-00155d38aa06" side="ONE"/>
                <iidm:step r="0.0" x="0.0" g="0.0" b="0.0" rho="1.1111111111111112"/>
                <iidm:step r="0.0" x="0.0" g="0.0" b="0.0" rho="1.0989010989010988"/>
                <iidm:step r="0.0" x="0.0" g="0.0" b="0.0" rho="1.0869565217391304"/>
                <iidm:step r="0.0" x="0.0" g="0.0" b="0.0" rho="1.0752688172043012"/>
                <iidm:step r="0.0" x="0.0" g="0.0" b="0.0" rho="1.0638297872340425"/>
                <iidm:step r="0.0" x="0.0" g="0.0" b="0.0" rho="1.0526315789473684"/>
                <iidm:step r="0.0" x="0.0" g="0.0" b="0.0" rho="1.0416666666666667"/>
                <iidm:step r="0.0" x="0.0" g="0.0" b="0.0" rho="1.0309278350515465"/>
                <iidm:step r="0.0" x="0.0" g="0.0" b="0.0" rho="1.0204081632653061"/>
                <iidm:step r="0.0" x="0.0" g="0.0" b="0.0" rho="1.0101010101010102"/>
                <iidm:step r="0.0" x="0.0" g="0.0" b="0.0" rho="1.0"/>
                <iidm:step r="0.0" x="0.0" g="0.0" b="0.0" rho="0.9900990099009901"/>
                <iidm:step r="0.0" x="0.0" g="0.0" b="0.0" rho="0.9803921568627451"/>
                <iidm:step r="0.0" x="0.0" g="0.0" b="0.0" rho="0.970873786407767"/>
                <iidm:step r="0.0" x="0.0" g="0.0" b="0.0" rho="0.9615384615384615"/>
                <iidm:step r="0.0" x="0.0" g="0.0" b="0.0" rho="0.9523809523809523"/>
                <iidm:step r="0.0" x="0.0" g="0.0" b="0.0" rho="0.9433962264150942"/>
                <iidm:step r="0.0" x="0.0" g="0.0" b="0.0" rho="0.9345794392523364"/>
                <iidm:step r="0.0" x="0.0" g="0.0" b="0.0" rho="0.9259259259259258"/>
                <iidm:step r="0.0" x="0.0" g="0.0" b="0.0" rho="0.9174311926605504"/>
                <iidm:step r="0.0" x="0.0" g="0.0" b="0.0" rho="0.9090909090909091"/>
            </iidm:ratioTapChanger>
            <iidm:currentLimits1 permanentLimit="656.079851">
                <iidm:temporaryLimit name="_36601bcb-4827-11ea-80e2-00155d739404" acceptableDuration="7200" value="688.883844"/>
                <iidm:temporaryLimit name="_36601bcc-4827-11ea-80e2-00155d739404" acceptableDuration="900" value="721.687836"/>
            </iidm:currentLimits1>
            <iidm:currentLimits2 permanentLimit="962.250449">
                <iidm:temporaryLimit name="_36601bcf-4827-11ea-80e2-00155d739404" acceptableDuration="7200" value="1010.362971"/>
                <iidm:temporaryLimit name="_36601bd0-4827-11ea-80e2-00155d739404" acceptableDuration="900" value="1058.475494"/>
            </iidm:currentLimits2>
        </iidm:twoWindingsTransformer>
        <iidm:twoWindingsTransformer id="_2be157b1-027e-11e7-afc1-94659cb4e466" name="TR 5 150/60 SCC" r="0.10120949999999998" x="3.8448143999999993" g="1.1086167800453517E-5" b="-1.8644557823129254E-5" ratedU1="150.0" ratedU2="63.0" bus1="_2b6ed996-027e-11e7-afc1-94659cb4e466" connectableBus1="_2b6ed996-027e-11e7-afc1-94659cb4e466" voltageLevelId1="_2b6ed997-027e-11e7-afc1-94659cb4e466" bus2="_2b6edfbd-027e-11e7-afc1-94659cb4e466" connectableBus2="_2b6edfbd-027e-11e7-afc1-94659cb4e466" voltageLevelId2="_2b6edfbe-027e-11e7-afc1-94659cb4e466" p1="19.5169964" q1="2.75078535" p2="-19.4634647" q2="-2.309273">
            <iidm:ratioTapChanger lowTapPosition="1" tapPosition="12" targetDeadband="2.52" loadTapChangingCapabilities="true" regulating="true" targetV="63.0">
                <iidm:terminalRef id="_2be1579f-027e-11e7-afc1-94659cb4e466" side="TWO"/>
                <iidm:step r="0.0" x="0.0" g="0.0" b="0.0" rho="1.142956416785915"/>
                <iidm:step r="0.0" x="0.0" g="0.0" b="0.0" rho="1.1295006364736087"/>
                <iidm:step r="0.0" x="0.0" g="0.0" b="0.0" rho="1.1163579936814139"/>
                <iidm:step r="0.0" x="0.0" g="0.0" b="0.0" rho="1.1035176833191163"/>
                <iidm:step r="0.0" x="0.0" g="0.0" b="0.0" rho="1.0909693917627448"/>
                <iidm:step r="0.0" x="0.0" g="0.0" b="0.0" rho="1.0787032692259981"/>
                <iidm:step r="0.0" x="0.0" g="0.0" b="0.0" rho="1.0667099039747745"/>
                <iidm:step r="0.0" x="0.0" g="0.0" b="0.0" rho="1.0549802982429304"/>
                <iidm:step r="0.0" x="0.0" g="0.0" b="0.0" rho="1.0435058457197477"/>
                <iidm:step r="0.0" x="0.0" g="0.0" b="0.0" rho="1.0322783104907347"/>
                <iidm:step r="0.0" x="0.0" g="0.0" b="0.0" rho="1.021289807323465"/>
                <iidm:step r="0.0" x="0.0" g="0.0" b="0.0" rho="1.010532783199286"/>
                <iidm:step r="0.0" x="0.0" g="0.0" b="0.0" rho="1.0"/>
                <iidm:step r="0.0" x="0.0" g="0.0" b="0.0" rho="0.9896845182661123"/>
                <iidm:step r="0.0" x="0.0" g="0.0" b="0.0" rho="0.979579681950069"/>
                <iidm:step r="0.0" x="0.0" g="0.0" b="0.0" rho="0.9696791040940822"/>
                <iidm:step r="0.0" x="0.0" g="0.0" b="0.0" rho="0.95997665336779"/>
                <iidm:step r="0.0" x="0.0" g="0.0" b="0.0" rho="0.9504664414061201"/>
                <iidm:step r="0.0" x="0.0" g="0.0" b="0.0" rho="0.9411428108924105"/>
                <iidm:step r="0.0" x="0.0" g="0.0" b="0.0" rho="0.9320003243361128"/>
                <iidm:step r="0.0" x="0.0" g="0.0" b="0.0" rho="0.923033753498298"/>
                <iidm:step r="0.0" x="0.0" g="0.0" b="0.0" rho="0.9142380694217536"/>
                <iidm:step r="0.0" x="0.0" g="0.0" b="0.0" rho="0.9056084330257282"/>
                <iidm:step r="0.0" x="0.0" g="0.0" b="0.0" rho="0.8971401862283598"/>
                <iidm:step r="0.0" x="0.0" g="0.0" b="0.0" rho="0.8888288435625682"/>
            </iidm:ratioTapChanger>
            <iidm:currentLimits1 permanentLimit="484.974226">
                <iidm:temporaryLimit name="_3c703611-4827-11ea-80e2-00155d739404" acceptableDuration="7200" value="509.222937"/>
                <iidm:temporaryLimit name="_3c703612-4827-11ea-80e2-00155d739404" acceptableDuration="900" value="533.471649"/>
            </iidm:currentLimits1>
            <iidm:currentLimits2 permanentLimit="1154.700538">
                <iidm:temporaryLimit name="_3c703615-4827-11ea-80e2-00155d739404" acceptableDuration="7200" value="1212.435565"/>
                <iidm:temporaryLimit name="_3c703616-4827-11ea-80e2-00155d739404" acceptableDuration="900" value="1270.170592"/>
            </iidm:currentLimits2>
        </iidm:twoWindingsTransformer>
        <iidm:twoWindingsTransformer id="_2be1578e-027e-11e7-afc1-94659cb4e466" name="AT 2 220/150 SCC" r="0.153" x="9.10785123966942" g="1.7333438222222224E-6" b="-8.604444444444444E-6" ratedU1="220.0" ratedU2="150.0" bus1="_2b6edb8e-027e-11e7-afc1-94659cb4e466" connectableBus1="_2b6edb8e-027e-11e7-afc1-94659cb4e466" voltageLevelId1="_2b6edb8f-027e-11e7-afc1-94659cb4e466" bus2="_2b6ed996-027e-11e7-afc1-94659cb4e466" connectableBus2="_2b6ed996-027e-11e7-afc1-94659cb4e466" voltageLevelId2="_2b6ed997-027e-11e7-afc1-94659cb4e466" p1="16.3954525" q1="0.700656533" p2="-16.3547363" q2="-0.3988973">
            <iidm:ratioTapChanger lowTapPosition="1" tapPosition="11" targetDeadband="22.0" loadTapChangingCapabilities="true" regulating="true" targetV="220.0">
                <iidm:terminalRef id="_63b04e82-db70-11e8-80ee-00155d38aa06" side="ONE"/>
                <iidm:step r="0.0" x="0.0" g="0.0" b="0.0" rho="1.1111111111111112"/>
                <iidm:step r="0.0" x="0.0" g="0.0" b="0.0" rho="1.0989010989010988"/>
                <iidm:step r="0.0" x="0.0" g="0.0" b="0.0" rho="1.0869565217391304"/>
                <iidm:step r="0.0" x="0.0" g="0.0" b="0.0" rho="1.0752688172043012"/>
                <iidm:step r="0.0" x="0.0" g="0.0" b="0.0" rho="1.0638297872340425"/>
                <iidm:step r="0.0" x="0.0" g="0.0" b="0.0" rho="1.0526315789473684"/>
                <iidm:step r="0.0" x="0.0" g="0.0" b="0.0" rho="1.0416666666666667"/>
                <iidm:step r="0.0" x="0.0" g="0.0" b="0.0" rho="1.0309278350515465"/>
                <iidm:step r="0.0" x="0.0" g="0.0" b="0.0" rho="1.0204081632653061"/>
                <iidm:step r="0.0" x="0.0" g="0.0" b="0.0" rho="1.0101010101010102"/>
                <iidm:step r="0.0" x="0.0" g="0.0" b="0.0" rho="1.0"/>
                <iidm:step r="0.0" x="0.0" g="0.0" b="0.0" rho="0.9900990099009901"/>
                <iidm:step r="0.0" x="0.0" g="0.0" b="0.0" rho="0.9803921568627451"/>
                <iidm:step r="0.0" x="0.0" g="0.0" b="0.0" rho="0.970873786407767"/>
                <iidm:step r="0.0" x="0.0" g="0.0" b="0.0" rho="0.9615384615384615"/>
                <iidm:step r="0.0" x="0.0" g="0.0" b="0.0" rho="0.9523809523809523"/>
                <iidm:step r="0.0" x="0.0" g="0.0" b="0.0" rho="0.9433962264150942"/>
                <iidm:step r="0.0" x="0.0" g="0.0" b="0.0" rho="0.9345794392523364"/>
                <iidm:step r="0.0" x="0.0" g="0.0" b="0.0" rho="0.9259259259259258"/>
                <iidm:step r="0.0" x="0.0" g="0.0" b="0.0" rho="0.9174311926605504"/>
                <iidm:step r="0.0" x="0.0" g="0.0" b="0.0" rho="0.9090909090909091"/>
            </iidm:ratioTapChanger>
            <iidm:currentLimits1 permanentLimit="656.079851">
                <iidm:temporaryLimit name="_3c703601-4827-11ea-80e2-00155d739404" acceptableDuration="7200" value="688.883844"/>
                <iidm:temporaryLimit name="_3c703602-4827-11ea-80e2-00155d739404" acceptableDuration="900" value="721.687836"/>
            </iidm:currentLimits1>
            <iidm:currentLimits2 permanentLimit="962.250449">
                <iidm:temporaryLimit name="_3c703605-4827-11ea-80e2-00155d739404" acceptableDuration="7200" value="1010.362971"/>
                <iidm:temporaryLimit name="_3c703606-4827-11ea-80e2-00155d739404" acceptableDuration="900" value="1058.475494"/>
            </iidm:currentLimits2>
        </iidm:twoWindingsTransformer>
    </iidm:substation>
    <iidm:substation id="_2b6ee065-027e-11e7-afc1-94659cb4e466" name="CABRIL" country="PT" geographicalTags="_2b6ed85d-027e-11e7-afc1-94659cb4e466">
        <iidm:voltageLevel id="_2b6ee067-027e-11e7-afc1-94659cb4e466" name="CAB_150" nominalV="150.0" topologyKind="BUS_BREAKER">
            <iidm:busBreakerTopology>
                <iidm:bus id="_2b6ee066-027e-11e7-afc1-94659cb4e466" name="CABRIL" v="150.0" angle="8.712534"/>
            </iidm:busBreakerTopology>
        </iidm:voltageLevel>
        <iidm:voltageLevel id="_2b6eebfe-027e-11e7-afc1-94659cb4e466" name="HA-_16" nominalV="15.5" topologyKind="BUS_BREAKER">
            <iidm:busBreakerTopology>
                <iidm:bus id="_2b6eebfd-027e-11e7-afc1-94659cb4e466" name="HA-CR1" v="13.8313684" angle="15.1380215"/>
            </iidm:busBreakerTopology>
            <iidm:generator id="_2b6ef7d6-027e-11e7-afc1-94659cb4e466" name="8041_1 " energySource="HYDRO" minP="0.0" maxP="54.0" ratedS="62.0" voltageRegulatorOn="true" targetP="50.0" targetV="150.0" targetQ="-7.737202" bus="_2b6eebfd-027e-11e7-afc1-94659cb4e466" connectableBus="_2b6eebfd-027e-11e7-afc1-94659cb4e466" p="-50.0" q="7.737202">
                <iidm:regulatingTerminal id="_2be151ae-027e-11e7-afc1-94659cb4e466" side="ONE"/>
                <iidm:minMaxReactiveLimits minQ="-15.0" maxQ="30.0"/>
            </iidm:generator>
        </iidm:voltageLevel>
        <iidm:voltageLevel id="_2b6eec0b-027e-11e7-afc1-94659cb4e466" name="HA-_16" nominalV="15.5" topologyKind="BUS_BREAKER">
            <iidm:busBreakerTopology>
                <iidm:bus id="_2b6eec0a-027e-11e7-afc1-94659cb4e466" name="HA-CR2" v="13.8313684" angle="15.1380215"/>
            </iidm:busBreakerTopology>
            <iidm:generator id="_2b6ef7dc-027e-11e7-afc1-94659cb4e466" name="8042_1 " energySource="HYDRO" minP="0.0" maxP="54.0" ratedS="62.0" voltageRegulatorOn="true" targetP="50.0" targetV="150.0" targetQ="-7.737202" bus="_2b6eec0a-027e-11e7-afc1-94659cb4e466" connectableBus="_2b6eec0a-027e-11e7-afc1-94659cb4e466" p="-50.0" q="7.737202">
                <iidm:regulatingTerminal id="_2be151ae-027e-11e7-afc1-94659cb4e466" side="ONE"/>
                <iidm:minMaxReactiveLimits minQ="-15.0" maxQ="30.0"/>
            </iidm:generator>
        </iidm:voltageLevel>
        <iidm:twoWindingsTransformer id="_2be16368-027e-11e7-afc1-94659cb4e466" name="TR G2 CCR" r="0.019700941230486685" x="0.43317361799816345" g="3.072203850156088E-4" b="-0.0030722038501560874" ratedU1="165.0" ratedU2="15.5" bus1="_2b6ee066-027e-11e7-afc1-94659cb4e466" connectableBus1="_2b6ee066-027e-11e7-afc1-94659cb4e466" voltageLevelId1="_2b6ee067-027e-11e7-afc1-94659cb4e466" bus2="_2b6eec0a-027e-11e7-afc1-94659cb4e466" connectableBus2="_2b6eec0a-027e-11e7-afc1-94659cb4e466" voltageLevelId2="_2b6eec0b-027e-11e7-afc1-94659cb4e466" p1="-49.67539" q1="14.1411409" p2="50.0" q2="-7.73492241">
            <iidm:ratioTapChanger lowTapPosition="1" tapPosition="2" loadTapChangingCapabilities="false">
                <iidm:step r="0.0" x="0.0" g="0.0" b="0.0" rho="1.0526315789473684"/>
                <iidm:step r="0.0" x="0.0" g="0.0" b="0.0" rho="1.0"/>
                <iidm:step r="0.0" x="0.0" g="0.0" b="0.0" rho="0.9523809523809523"/>
            </iidm:ratioTapChanger>
            <iidm:currentLimits1 permanentLimit="426.88929">
                <iidm:temporaryLimit name="_3104eab9-4828-11ea-80e2-00155d739404" acceptableDuration="7200" value="426.88929"/>
            </iidm:currentLimits1>
            <iidm:currentLimits2 permanentLimit="4544.305345">
                <iidm:temporaryLimit name="_3104eabc-4828-11ea-80e2-00155d739404" acceptableDuration="7200" value="4544.305345"/>
            </iidm:currentLimits2>
        </iidm:twoWindingsTransformer>
        <iidm:twoWindingsTransformer id="_2be16359-027e-11e7-afc1-94659cb4e466" name="TR G1 CCR" r="0.019700941230486685" x="0.43317361799816345" g="3.072203850156088E-4" b="-0.0030722038501560874" ratedU1="165.0" ratedU2="15.5" bus1="_2b6ee066-027e-11e7-afc1-94659cb4e466" connectableBus1="_2b6ee066-027e-11e7-afc1-94659cb4e466" voltageLevelId1="_2b6ee067-027e-11e7-afc1-94659cb4e466" bus2="_2b6eebfd-027e-11e7-afc1-94659cb4e466" connectableBus2="_2b6eebfd-027e-11e7-afc1-94659cb4e466" voltageLevelId2="_2b6eebfe-027e-11e7-afc1-94659cb4e466" p1="-49.67539" q1="14.1411409" p2="50.0" q2="-7.73492241">
            <iidm:ratioTapChanger lowTapPosition="1" tapPosition="2" loadTapChangingCapabilities="false">
                <iidm:step r="0.0" x="0.0" g="0.0" b="0.0" rho="1.0526315789473684"/>
                <iidm:step r="0.0" x="0.0" g="0.0" b="0.0" rho="1.0"/>
                <iidm:step r="0.0" x="0.0" g="0.0" b="0.0" rho="0.9523809523809523"/>
            </iidm:ratioTapChanger>
            <iidm:currentLimits1 permanentLimit="426.88929">
                <iidm:temporaryLimit name="_3104eab3-4828-11ea-80e2-00155d739404" acceptableDuration="7200" value="426.88929"/>
            </iidm:currentLimits1>
            <iidm:currentLimits2 permanentLimit="4544.305345">
                <iidm:temporaryLimit name="_3104eab6-4828-11ea-80e2-00155d739404" acceptableDuration="7200" value="4544.305345"/>
            </iidm:currentLimits2>
        </iidm:twoWindingsTransformer>
    </iidm:substation>
    <iidm:substation id="_2b6ee071-027e-11e7-afc1-94659cb4e466" name="BOUCA" country="PT" geographicalTags="_2b6ed85d-027e-11e7-afc1-94659cb4e466">
        <iidm:voltageLevel id="_2b6ee073-027e-11e7-afc1-94659cb4e466" name="BOU_150" nominalV="150.0" topologyKind="BUS_BREAKER">
            <iidm:busBreakerTopology>
                <iidm:bus id="_2b6ee072-027e-11e7-afc1-94659cb4e466" name="BOUCA" v="150.0" angle="7.501012"/>
            </iidm:busBreakerTopology>
        </iidm:voltageLevel>
        <iidm:voltageLevel id="_2b6eec32-027e-11e7-afc1-94659cb4e466" name="HA-_6" nominalV="6.0" topologyKind="BUS_BREAKER">
            <iidm:busBreakerTopology>
                <iidm:bus id="_2b6eec31-027e-11e7-afc1-94659cb4e466" name="HA-BC1" v="5.388877" angle="14.5965"/>
            </iidm:busBreakerTopology>
            <iidm:generator id="_2b6ef7f2-027e-11e7-afc1-94659cb4e466" name="8061_1 " energySource="HYDRO" minP="0.0" maxP="22.0" ratedS="26.0" voltageRegulatorOn="true" targetP="22.0" targetV="150.0" targetQ="-1.59890759" bus="_2b6eec31-027e-11e7-afc1-94659cb4e466" connectableBus="_2b6eec31-027e-11e7-afc1-94659cb4e466" p="-22.0" q="1.59890759">
                <iidm:regulatingTerminal id="_2be151ae-027e-11e7-afc1-94659cb4e466" side="TWO"/>
                <iidm:minMaxReactiveLimits minQ="-12.0" maxQ="13.0"/>
            </iidm:generator>
        </iidm:voltageLevel>
        <iidm:voltageLevel id="_2b6eec40-027e-11e7-afc1-94659cb4e466" name="HA-_6" nominalV="6.0" topologyKind="BUS_BREAKER">
            <iidm:busBreakerTopology>
                <iidm:bus id="_2b6eec3f-027e-11e7-afc1-94659cb4e466" name="HA-BC2" v="5.388877" angle="14.5965"/>
            </iidm:busBreakerTopology>
            <iidm:generator id="_2b6ef7f8-027e-11e7-afc1-94659cb4e466" name="8062_1 " energySource="HYDRO" minP="0.0" maxP="22.0" ratedS="26.0" voltageRegulatorOn="true" targetP="22.0" targetV="150.0" targetQ="-1.59890759" bus="_2b6eec3f-027e-11e7-afc1-94659cb4e466" connectableBus="_2b6eec3f-027e-11e7-afc1-94659cb4e466" p="-22.0" q="1.59890759">
                <iidm:regulatingTerminal id="_2be151ae-027e-11e7-afc1-94659cb4e466" side="TWO"/>
                <iidm:minMaxReactiveLimits minQ="-12.0" maxQ="13.0"/>
            </iidm:generator>
        </iidm:voltageLevel>
        <iidm:twoWindingsTransformer id="_2be16386-027e-11e7-afc1-94659cb4e466" name="TR G2 CBC" r="0.0064440330578512395" x="0.16456198347107437" g="9.410775000000002E-4" b="-0.009410775000000001" ratedU1="165.0" ratedU2="6.0" bus1="_2b6ee072-027e-11e7-afc1-94659cb4e466" connectableBus1="_2b6ee072-027e-11e7-afc1-94659cb4e466" voltageLevelId1="_2b6ee073-027e-11e7-afc1-94659cb4e466" bus2="_2b6eec3f-027e-11e7-afc1-94659cb4e466" connectableBus2="_2b6eec3f-027e-11e7-afc1-94659cb4e466" voltageLevelId2="_2b6eec40-027e-11e7-afc1-94659cb4e466" p1="-21.8632278" q1="4.68177366" p2="21.9992218" q2="-1.643971">
            <iidm:ratioTapChanger lowTapPosition="1" tapPosition="2" loadTapChangingCapabilities="false">
                <iidm:step r="0.0" x="0.0" g="0.0" b="0.0" rho="1.0471204188481675"/>
                <iidm:step r="0.0" x="0.0" g="0.0" b="0.0" rho="1.0"/>
                <iidm:step r="0.0" x="0.0" g="0.0" b="0.0" rho="0.9569377990430623"/>
            </iidm:ratioTapChanger>
            <iidm:currentLimits1 permanentLimit="195.949182">
                <iidm:temporaryLimit name="_3104eac5-4828-11ea-80e2-00155d739404" acceptableDuration="7200" value="195.949182"/>
            </iidm:currentLimits1>
            <iidm:currentLimits2 permanentLimit="5388.602512">
                <iidm:temporaryLimit name="_3104eac8-4828-11ea-80e2-00155d739404" acceptableDuration="7200" value="5388.602512"/>
            </iidm:currentLimits2>
        </iidm:twoWindingsTransformer>
        <iidm:twoWindingsTransformer id="_2be16377-027e-11e7-afc1-94659cb4e466" name="TR G1 CBC" r="0.0064440330578512395" x="0.16456198347107437" g="9.410775000000002E-4" b="-0.009410775000000001" ratedU1="165.0" ratedU2="6.0" bus1="_2b6ee072-027e-11e7-afc1-94659cb4e466" connectableBus1="_2b6ee072-027e-11e7-afc1-94659cb4e466" voltageLevelId1="_2b6ee073-027e-11e7-afc1-94659cb4e466" bus2="_2b6eec31-027e-11e7-afc1-94659cb4e466" connectableBus2="_2b6eec31-027e-11e7-afc1-94659cb4e466" voltageLevelId2="_2b6eec32-027e-11e7-afc1-94659cb4e466" p1="-21.8632278" q1="4.68177366" p2="21.9992218" q2="-1.643971">
            <iidm:ratioTapChanger lowTapPosition="1" tapPosition="2" loadTapChangingCapabilities="false">
                <iidm:step r="0.0" x="0.0" g="0.0" b="0.0" rho="1.0471204188481675"/>
                <iidm:step r="0.0" x="0.0" g="0.0" b="0.0" rho="1.0"/>
                <iidm:step r="0.0" x="0.0" g="0.0" b="0.0" rho="0.9569377990430623"/>
            </iidm:ratioTapChanger>
            <iidm:currentLimits1 permanentLimit="195.949182">
                <iidm:temporaryLimit name="_3104eabf-4828-11ea-80e2-00155d739404" acceptableDuration="7200" value="195.949182"/>
            </iidm:currentLimits1>
            <iidm:currentLimits2 permanentLimit="5388.602512">
                <iidm:temporaryLimit name="_3104eac2-4828-11ea-80e2-00155d739404" acceptableDuration="7200" value="5388.602512"/>
            </iidm:currentLimits2>
        </iidm:twoWindingsTransformer>
    </iidm:substation>
    <iidm:substation id="_2b6ee126-027e-11e7-afc1-94659cb4e466" name="C.BODE" country="PT" geographicalTags="_2b6ed85d-027e-11e7-afc1-94659cb4e466">
        <iidm:voltageLevel id="_2b6ee128-027e-11e7-afc1-94659cb4e466" name="C.B_220" nominalV="220.0" topologyKind="BUS_BREAKER">
            <iidm:busBreakerTopology>
                <iidm:bus id="_2b6ee127-027e-11e7-afc1-94659cb4e466" name="C.BODE" v="220.038162" angle="2.7677536"/>
                <iidm:bus id="_2b6ee133-027e-11e7-afc1-94659cb4e466" name="C.BODE" v="220.046677" angle="2.76728129"/>
                <iidm:bus id="_2b6ee13f-027e-11e7-afc1-94659cb4e466" name="C.BODE" v="220.041443" angle="2.756748"/>
            </iidm:busBreakerTopology>
        </iidm:voltageLevel>
        <iidm:voltageLevel id="_2b6eeb87-027e-11e7-afc1-94659cb4e466" name="HA-_16" nominalV="15.5" topologyKind="BUS_BREAKER">
            <iidm:busBreakerTopology>
                <iidm:bus id="_2b6eeb86-027e-11e7-afc1-94659cb4e466" name="HA-CB1" v="15.6784906" angle="9.203815"/>
            </iidm:busBreakerTopology>
            <iidm:generator id="_2b6ef79a-027e-11e7-afc1-94659cb4e466" name="8011_1 " energySource="HYDRO" minP="0.0" maxP="53.0" ratedS="60.0" voltageRegulatorOn="true" targetP="53.0" targetV="220.0" targetQ="27.0000019" bus="_2b6eeb86-027e-11e7-afc1-94659cb4e466" connectableBus="_2b6eeb86-027e-11e7-afc1-94659cb4e466" p="-53.0" q="-27.0000019">
                <iidm:regulatingTerminal id="_9599abc5-f4b4-11e9-80d9-00155d739404" side="ONE"/>
                <iidm:minMaxReactiveLimits minQ="-16.0" maxQ="27.0"/>
            </iidm:generator>
        </iidm:voltageLevel>
        <iidm:voltageLevel id="_2b6eeb95-027e-11e7-afc1-94659cb4e466" name="HA-_16" nominalV="15.5" topologyKind="BUS_BREAKER">
            <iidm:busBreakerTopology>
                <iidm:bus id="_2b6eeb94-027e-11e7-afc1-94659cb4e466" name="HA-CB2" v="15.6790409" angle="9.202866"/>
            </iidm:busBreakerTopology>
            <iidm:generator id="_2b6ef7a0-027e-11e7-afc1-94659cb4e466" name="8012_1 " energySource="HYDRO" minP="0.0" maxP="53.0" ratedS="60.0" voltageRegulatorOn="true" targetP="53.0" targetV="220.0" targetQ="27.0000019" bus="_2b6eeb94-027e-11e7-afc1-94659cb4e466" connectableBus="_2b6eeb94-027e-11e7-afc1-94659cb4e466" p="-53.0" q="-27.0000019">
                <iidm:regulatingTerminal id="_9599abc5-f4b4-11e9-80d9-00155d739404" side="ONE"/>
                <iidm:minMaxReactiveLimits minQ="-16.0" maxQ="27.0"/>
            </iidm:generator>
        </iidm:voltageLevel>
        <iidm:voltageLevel id="_2b6eeba2-027e-11e7-afc1-94659cb4e466" name="HA-_16" nominalV="15.5" topologyKind="BUS_BREAKER">
            <iidm:busBreakerTopology>
                <iidm:bus id="_2b6eeba1-027e-11e7-afc1-94659cb4e466" name="HA-CB3" v="15.7101641" angle="5.5773654"/>
            </iidm:busBreakerTopology>
            <iidm:generator id="_2b6ef7a6-027e-11e7-afc1-94659cb4e466" name="8013_1 " energySource="HYDRO" minP="0.0" maxP="53.0" ratedS="60.0" voltageRegulatorOn="true" targetP="24.0" targetV="220.0" targetQ="27.0000019" bus="_2b6eeba1-027e-11e7-afc1-94659cb4e466" connectableBus="_2b6eeba1-027e-11e7-afc1-94659cb4e466" p="-24.0" q="-27.0000019">
                <iidm:regulatingTerminal id="_9599abc5-f4b4-11e9-80d9-00155d739404" side="ONE"/>
                <iidm:minMaxReactiveLimits minQ="-16.0" maxQ="27.0"/>
            </iidm:generator>
        </iidm:voltageLevel>
        <iidm:twoWindingsTransformer id="_2be16449-027e-11e7-afc1-94659cb4e466" name="TR G1 CCB" r="0.022823985081156472" x="0.5033217539798557" g="2.175176894984391E-4" b="-0.002154716326931113" ratedU1="218.46" ratedU2="15.5" bus1="_2b6ee127-027e-11e7-afc1-94659cb4e466" connectableBus1="_2b6ee127-027e-11e7-afc1-94659cb4e466" voltageLevelId1="_2b6ee128-027e-11e7-afc1-94659cb4e466" bus2="_2b6eeb86-027e-11e7-afc1-94659cb4e466" connectableBus2="_2b6eeb86-027e-11e7-afc1-94659cb4e466" voltageLevelId2="_2b6eeb87-027e-11e7-afc1-94659cb4e466" p1="-52.61848" q1="-19.2305164" p2="53.0000038" q2="26.9999733">
            <iidm:ratioTapChanger lowTapPosition="1" tapPosition="3" loadTapChangingCapabilities="false">
                <iidm:step r="0.0" x="0.0" g="0.0" b="0.0" rho="1.0"/>
                <iidm:step r="0.0" x="0.0" g="0.0" b="0.0" rho="0.9742458119608158"/>
                <iidm:step r="0.0" x="0.0" g="0.0" b="0.0" rho="0.9497848737261011"/>
                <iidm:step r="0.0" x="0.0" g="0.0" b="0.0" rho="0.9265221600937641"/>
                <iidm:step r="0.0" x="0.0" g="0.0" b="0.0" rho="0.9043717329571147"/>
            </iidm:ratioTapChanger>
            <iidm:currentLimits1 permanentLimit="277.49601">
                <iidm:temporaryLimit name="_43699b9c-4828-11ea-80e2-00155d739404" acceptableDuration="7200" value="277.49601"/>
            </iidm:currentLimits1>
            <iidm:currentLimits2 permanentLimit="3911.082469">
                <iidm:temporaryLimit name="_43699b9f-4828-11ea-80e2-00155d739404" acceptableDuration="7200" value="3911.082469"/>
            </iidm:currentLimits2>
        </iidm:twoWindingsTransformer>
        <iidm:twoWindingsTransformer id="_2be16458-027e-11e7-afc1-94659cb4e466" name="TR G2 CCB" r="0.022823985081156472" x="0.5033217539798557" g="2.175176894984391E-4" b="-0.002154716326931113" ratedU1="218.46" ratedU2="15.5" bus1="_2b6ee133-027e-11e7-afc1-94659cb4e466" connectableBus1="_2b6ee133-027e-11e7-afc1-94659cb4e466" voltageLevelId1="_2b6ee128-027e-11e7-afc1-94659cb4e466" bus2="_2b6eeb94-027e-11e7-afc1-94659cb4e466" connectableBus2="_2b6eeb94-027e-11e7-afc1-94659cb4e466" voltageLevelId2="_2b6eeb95-027e-11e7-afc1-94659cb4e466" p1="-52.6184959" q1="-19.230999" p2="52.9999962" q2="27.00001">
            <iidm:ratioTapChanger lowTapPosition="1" tapPosition="3" loadTapChangingCapabilities="false">
                <iidm:step r="0.0" x="0.0" g="0.0" b="0.0" rho="1.0"/>
                <iidm:step r="0.0" x="0.0" g="0.0" b="0.0" rho="0.9742458119608158"/>
                <iidm:step r="0.0" x="0.0" g="0.0" b="0.0" rho="0.9497848737261011"/>
                <iidm:step r="0.0" x="0.0" g="0.0" b="0.0" rho="0.9265221600937641"/>
                <iidm:step r="0.0" x="0.0" g="0.0" b="0.0" rho="0.9043717329571147"/>
            </iidm:ratioTapChanger>
            <iidm:currentLimits1 permanentLimit="277.49601">
                <iidm:temporaryLimit name="_43699ba2-4828-11ea-80e2-00155d739404" acceptableDuration="7200" value="277.49601"/>
            </iidm:currentLimits1>
            <iidm:currentLimits2 permanentLimit="3911.082469">
                <iidm:temporaryLimit name="_43699ba5-4828-11ea-80e2-00155d739404" acceptableDuration="7200" value="3911.082469"/>
            </iidm:currentLimits2>
        </iidm:twoWindingsTransformer>
        <iidm:twoWindingsTransformer id="_2be16467-027e-11e7-afc1-94659cb4e466" name="TR G3 CCB" r="0.022823985081156472" x="0.5033217539798557" g="2.175176894984391E-4" b="-0.002154716326931113" ratedU1="218.46" ratedU2="15.5" bus1="_2b6ee13f-027e-11e7-afc1-94659cb4e466" connectableBus1="_2b6ee13f-027e-11e7-afc1-94659cb4e466" voltageLevelId1="_2b6ee128-027e-11e7-afc1-94659cb4e466" bus2="_2b6eeba1-027e-11e7-afc1-94659cb4e466" connectableBus2="_2b6eeba1-027e-11e7-afc1-94659cb4e466" voltageLevelId2="_2b6eeba2-027e-11e7-afc1-94659cb4e466" p1="-23.8262978" q1="-23.8135" p2="24.0" q2="27.0000038">
...